Version 4.1
SHEET 1 928 680
WIRE 352 -32 224 -32
WIRE 224 0 224 -32
WIRE 352 0 352 -32
WIRE 224 128 224 80
WIRE 240 176 224 176
WIRE 48 208 -16 208
WIRE 176 208 128 208
WIRE -16 240 -16 208
WIRE 224 240 224 224
WIRE 240 240 240 176
WIRE 240 240 224 240
WIRE 224 256 224 240
WIRE -16 368 -16 320
WIRE 224 368 224 336
FLAG 224 368 0
FLAG 352 80 0
FLAG -16 368 0
SYMBOL nmos4 176 128 R0
SYMATTR InstName M1
SYMATTR Value2 l=60u w=135u
SYMATTR Value MOSFET
SYMBOL res 208 240 R0
SYMATTR InstName R1
SYMATTR Value 1k
SYMBOL res 208 -16 R0
SYMATTR InstName R2
SYMATTR Value 1k
SYMBOL voltage 352 -16 R0
WINDOW 123 0 0 Left 0
WINDOW 39 0 0 Left 0
SYMATTR InstName V1
SYMATTR Value 8
SYMBOL res 144 192 R90
WINDOW 0 0 56 VBottom 2
WINDOW 3 32 56 VTop 2
SYMATTR InstName R3
SYMATTR Value 1.875Meg
SYMBOL voltage -16 224 R0
WINDOW 123 0 0 Left 0
WINDOW 39 0 0 Left 0
SYMATTR InstName V2
SYMATTR Value 5
TEXT 256 232 Left 2 !.model MOSFET NMOS(Vto=1,KP=0.44m,W=135u,L=60u)
TEXT 336 328 Left 2 !.op
