Version 4.1
SHEET 1 880 680
WIRE 144 -176 80 -176
WIRE 80 -144 80 -176
WIRE 144 -144 144 -176
WIRE 80 -32 80 -64
WIRE 80 -32 -80 -32
WIRE 240 -32 80 -32
WIRE -80 0 -80 -32
WIRE -80 112 -80 80
WIRE 32 112 -80 112
WIRE -80 144 -80 112
WIRE 240 144 240 -32
WIRE -80 192 -112 192
WIRE 272 192 240 192
WIRE 32 224 32 112
WIRE 32 224 -32 224
WIRE 192 224 32 224
WIRE -112 256 -112 192
WIRE -80 256 -80 240
WIRE -80 256 -112 256
WIRE 240 256 240 240
WIRE 272 256 272 192
WIRE 272 256 240 256
WIRE -80 304 -80 256
WIRE 32 304 -80 304
WIRE -80 352 -80 304
WIRE 240 352 240 256
WIRE -80 400 -112 400
WIRE 272 400 240 400
WIRE 32 432 32 304
WIRE 32 432 -32 432
WIRE 192 432 32 432
WIRE -112 464 -112 400
WIRE -80 464 -80 448
WIRE -80 464 -112 464
WIRE 240 464 240 448
WIRE 272 464 272 400
WIRE 272 464 240 464
WIRE -80 496 -80 464
WIRE 80 496 -80 496
WIRE 240 496 240 464
WIRE 240 496 80 496
WIRE 80 528 80 496
FLAG 80 608 0
FLAG 144 -144 0
SYMBOL nmos4 192 144 R0
SYMATTR InstName M4
SYMATTR Value 2
SYMBOL nmos4 -32 144 M0
SYMATTR InstName M3
SYMATTR Value 1
SYMBOL nmos4 -32 352 M0
SYMATTR InstName M1
SYMATTR Value 3
SYMBOL nmos4 192 352 R0
SYMATTR InstName M2
SYMATTR Value 4
SYMBOL voltage 80 512 R0
WINDOW 123 0 0 Left 0
WINDOW 39 0 0 Left 0
SYMATTR InstName V1
SYMATTR Value -15
SYMBOL res -96 -16 R0
SYMATTR InstName R1
SYMATTR Value 5.456k
SYMBOL voltage 80 -48 R180
WINDOW 0 24 96 Left 2
WINDOW 3 24 16 Left 2
WINDOW 123 0 0 Left 0
WINDOW 39 0 0 Left 0
SYMATTR InstName V2
SYMATTR Value 15
TEXT -616 528 Left 2 !.model 1 NMOS(Vto=1,KP=20m,W=100u,L=100u)\n.model 2 NMOS(Vto=1,KP=20m,W=100u,L=100u)\n.model 3 NMOS(Vto=1,KP=20m,W=100u,L=100u)\n.model 4 NMOS(Vto=1,KP=20m,W=100u,L=100u)
TEXT -616 664 Left 2 !.op
