Version 4.1
SHEET 1 880 680
WIRE 384 -112 256 -112
WIRE 384 -96 384 -112
WIRE 256 -48 256 -112
WIRE 256 64 256 32
WIRE 352 64 256 64
WIRE 480 64 416 64
WIRE 480 112 480 64
WIRE 256 128 256 64
WIRE 192 176 112 176
WIRE 112 208 112 176
WIRE 480 224 480 192
WIRE 80 288 -16 288
WIRE 256 288 256 224
WIRE 256 288 144 288
WIRE -16 336 -16 288
WIRE 256 352 256 288
WIRE -16 480 -16 416
WIRE 256 512 256 432
FLAG 112 208 0
FLAG 480 224 0
FLAG 384 -16 0
FLAG 256 592 0
FLAG -16 480 0
SYMBOL npn 192 128 R0
SYMATTR InstName Q1
SYMATTR Value 2N2222
SYMBOL res 240 336 R0
SYMATTR InstName RE
SYMATTR Value 20k
SYMBOL voltage -16 320 R0
WINDOW 123 0 0 Left 0
WINDOW 39 0 0 Left 0
SYMATTR InstName Vi
SYMATTR Value SINE(0 1 50)
SYMBOL cap 144 272 R90
WINDOW 0 0 32 VBottom 2
WINDOW 3 32 32 VTop 2
SYMATTR InstName C1
SYMATTR Value 10µ
SYMBOL res 240 -64 R0
SYMATTR InstName RC
SYMATTR Value 33k
SYMBOL cap 416 48 R90
WINDOW 0 0 32 VBottom 2
WINDOW 3 32 32 VTop 2
SYMATTR InstName C2
SYMATTR Value 10µ
SYMBOL res 464 96 R0
SYMATTR InstName RL
SYMATTR Value 64
SYMBOL voltage 384 -112 R0
WINDOW 123 0 0 Left 0
WINDOW 39 0 0 Left 0
SYMATTR InstName V2
SYMATTR Value 15
SYMBOL voltage 256 496 R0
WINDOW 123 0 0 Left 0
WINDOW 39 0 0 Left 0
SYMATTR InstName V3
SYMATTR Value -5
TEXT -48 616 Left 2 !.tran 100m
