Version 4.1
SHEET 1 880 680
WIRE 96 112 48 112
WIRE 192 112 160 112
WIRE 224 112 192 112
WIRE 336 112 304 112
WIRE 48 144 48 112
WIRE 192 144 192 112
WIRE 336 144 336 112
WIRE 48 256 48 224
WIRE 192 256 192 224
WIRE 192 256 48 256
WIRE 336 256 336 208
WIRE 336 256 192 256
FLAG 192 256 0
SYMBOL cap 160 96 R90
WINDOW 0 0 32 VBottom 2
WINDOW 3 32 32 VTop 2
SYMATTR InstName C1
SYMATTR Value 800n
SYMBOL res 320 96 R90
WINDOW 0 0 56 VBottom 2
WINDOW 3 32 56 VTop 2
SYMATTR InstName R1
SYMATTR Value 10k
SYMBOL res 176 128 R0
SYMATTR InstName R2
SYMATTR Value 10k
SYMBOL voltage 48 128 R0
WINDOW 3 24 100 Left 2
WINDOW 123 24 72 Left 2
SYMATTR InstName V1
SYMATTR Value wavefile="/home/adi/weeknd.wav"
SYMATTR Value2 AC 1
SYMBOL cap 320 144 R0
SYMATTR InstName C2
SYMATTR Value 800p
TEXT 8 280 Left 2 !.ac dec 100 1 1Meg
