Version 4.1
SHEET 1 880 680
WIRE 272 -80 128 -80
WIRE 432 -80 272 -80
WIRE 128 -16 128 -80
WIRE 272 -16 272 -80
WIRE 272 96 272 64
WIRE 544 96 272 96
WIRE 672 96 608 96
WIRE 272 128 272 96
WIRE 432 128 432 -80
WIRE 0 176 -80 176
WIRE 128 176 128 64
WIRE 128 176 64 176
WIRE 208 176 128 176
WIRE 672 224 672 96
WIRE -80 288 -80 176
WIRE 128 288 128 176
WIRE 272 288 272 224
WIRE -80 416 -80 368
WIRE 128 416 128 368
WIRE 128 416 -80 416
WIRE 272 416 272 368
WIRE 272 416 128 416
WIRE 432 416 432 208
WIRE 432 416 272 416
WIRE 672 416 672 304
WIRE 672 416 432 416
WIRE 272 432 272 416
FLAG 272 432 0
SYMBOL npn 208 128 R0
SYMATTR InstName Q1
SYMATTR Value 2N2222
SYMBOL res 256 272 R0
SYMATTR InstName R1
SYMATTR Value 1k
SYMBOL res 256 -32 R0
SYMATTR InstName R2
SYMATTR Value 2k
SYMBOL voltage 432 112 R0
WINDOW 123 0 0 Left 0
WINDOW 39 0 0 Left 0
SYMATTR InstName V1
SYMATTR Value 12
SYMBOL res 112 -32 R0
SYMATTR InstName R3
SYMATTR Value 10k
SYMBOL res 112 272 R0
SYMATTR InstName R4
SYMATTR Value 6k
SYMBOL cap 64 160 R90
WINDOW 0 0 32 VBottom 2
WINDOW 3 32 32 VTop 2
SYMATTR InstName C1
SYMATTR Value 10µ
SYMBOL voltage -80 272 R0
WINDOW 123 0 0 Left 0
WINDOW 39 0 0 Left 0
SYMATTR InstName V2
SYMATTR Value SINE(0 1m 1k)
SYMBOL cap 608 80 R90
WINDOW 0 0 32 VBottom 2
WINDOW 3 32 32 VTop 2
SYMATTR InstName C2
SYMATTR Value 10µ
SYMBOL res 656 208 R0
SYMATTR InstName R5
SYMATTR Value 10k
TEXT -112 456 Left 2 !.tran 10m
