Version 4.1
SHEET 1 2896 680
WIRE 240 0 80 0
WIRE 400 0 240 0
WIRE 240 32 240 0
WIRE 80 64 80 0
WIRE 400 80 400 0
WIRE 240 144 240 112
WIRE -32 192 -80 192
WIRE 80 192 80 144
WIRE 80 192 32 192
WIRE 176 192 80 192
WIRE 80 240 80 192
WIRE 240 272 240 240
WIRE -80 288 -80 192
WIRE -80 384 -80 368
WIRE 80 384 80 320
WIRE 80 384 -80 384
WIRE 160 384 80 384
WIRE 240 384 240 352
WIRE 240 384 160 384
WIRE 400 384 400 160
WIRE 400 384 240 384
FLAG 160 384 0
SYMBOL npn 176 144 R0
SYMATTR InstName Q1
SYMATTR Value 2N22221
SYMBOL res 224 16 R0
SYMATTR InstName R1
SYMATTR Value 100
SYMBOL res 64 48 R0
SYMATTR InstName R2
SYMATTR Value 100k
SYMBOL voltage 400 64 R0
WINDOW 123 0 0 Left 0
WINDOW 39 0 0 Left 0
SYMATTR InstName V1
SYMATTR Value 9
SYMBOL res 224 256 R0
SYMATTR InstName R3
SYMATTR Value 500
SYMBOL res 64 224 R0
SYMATTR InstName R4
SYMATTR Value 1130
SYMBOL cap 32 176 R90
WINDOW 0 0 32 VBottom 2
WINDOW 3 32 32 VTop 2
SYMATTR InstName C1
SYMATTR Value 100µ
SYMBOL voltage -80 272 R0
WINDOW 123 0 0 Left 0
WINDOW 39 0 0 Left 0
SYMATTR InstName V2
SYMATTR Value SINE(0 1 50)
TEXT -96 360 Left 2 !.tran 100m
TEXT 584 224 Left 2 !.model 2N22221 NPN(IS=1E-14 VAF=100 BF=150 IKF=0.3 XTB=1.5 BR=3 CJC=8E-12 CJE=25E-12 TR=100E-9 TF=400E-12 ITF=1 VTF=2 XTF=3 RB=10 RC=.3 RE=.2 Vceo=30 Icrating=800m mfg=NXP)
