Version 4.1
SHEET 1 880 680
WIRE 112 -16 80 -16
WIRE 80 16 80 -16
WIRE 192 32 192 -16
WIRE 192 160 192 112
WIRE 128 208 48 208
WIRE 48 272 48 208
WIRE 192 272 192 256
WIRE 304 272 192 272
WIRE 192 304 192 272
WIRE 304 320 304 272
WIRE 48 400 48 352
WIRE 192 416 192 384
WIRE 304 416 304 384
WIRE 304 416 192 416
WIRE 192 432 192 416
FLAG 192 512 0
FLAG 48 400 0
FLAG 80 16 0
SYMBOL npn 128 160 R0
SYMATTR InstName Q1
SYMATTR Value 2N2222
SYMBOL res 176 288 R0
SYMATTR InstName R1
SYMATTR Value 100
SYMBOL cap 288 320 R0
SYMATTR InstName C1
SYMATTR Value 1µ
SYMBOL res 176 16 R0
SYMATTR InstName R2
SYMATTR Value 1k
SYMBOL voltage 48 256 R0
WINDOW 123 0 0 Left 0
WINDOW 39 0 0 Left 0
SYMATTR InstName V1
SYMATTR Value SINE(0 1 50)
SYMBOL voltage 192 528 R180
WINDOW 0 24 96 Left 2
WINDOW 3 24 16 Left 2
WINDOW 123 0 0 Left 0
WINDOW 39 0 0 Left 0
SYMATTR InstName V2
SYMATTR Value 2.5
SYMBOL voltage 208 -16 R90
WINDOW 0 -32 56 VBottom 2
WINDOW 3 32 56 VTop 2
WINDOW 123 0 0 Left 0
WINDOW 39 0 0 Left 0
SYMATTR InstName V3
SYMATTR Value 2.5
TEXT 8 536 Left 2 !.tran 100m
