Version 4.1
SHEET 1 880 680
WIRE 256 64 112 64
WIRE 496 64 336 64
WIRE 736 64 496 64
WIRE 736 112 736 64
WIRE 112 144 112 64
WIRE 496 160 496 64
WIRE 112 320 112 224
WIRE 496 320 496 224
WIRE 496 320 112 320
WIRE 736 320 736 256
WIRE 736 320 496 320
FLAG 496 320 0
SYMBOL voltage 112 128 R0
WINDOW 123 0 0 Left 0
WINDOW 39 0 0 Left 0
SYMATTR InstName V1
SYMATTR Value SINE(0 10 50)
SYMBOL res 352 48 R90
WINDOW 0 0 56 VBottom 2
WINDOW 3 32 56 VTop 2
SYMATTR InstName R1
SYMATTR Value 1k
SYMBOL diode 480 224 M180
WINDOW 0 24 64 Left 2
WINDOW 3 24 0 Left 2
SYMATTR InstName D1
SYMATTR Value BZX84C10L
SYMATTR Description Diode
SYMATTR Type diode
SYMBOL diode 720 112 R0
SYMATTR InstName D2
SYMATTR Value 1N4148
SYMBOL voltage 736 160 R0
WINDOW 123 0 0 Left 0
WINDOW 39 0 0 Left 0
SYMATTR InstName V2
SYMATTR Value 5
TEXT 72 336 Left 2 !.tran 100ms
