Version 4.1
SHEET 1 1088 696
WIRE 256 80 144 80
WIRE 368 80 256 80
WIRE 144 112 144 80
WIRE 144 208 144 192
WIRE 256 208 144 208
WIRE 144 224 144 208
WIRE 368 224 368 80
WIRE 144 272 112 272
WIRE 400 272 368 272
WIRE 256 304 256 208
WIRE 256 304 192 304
WIRE 320 304 256 304
WIRE 112 336 112 272
WIRE 144 336 144 320
WIRE 144 336 112 336
WIRE 368 336 368 320
WIRE 400 336 400 272
WIRE 400 336 368 336
WIRE 144 368 144 336
WIRE 256 368 144 368
WIRE 144 400 144 368
WIRE 368 400 368 336
WIRE 144 448 112 448
WIRE 400 448 368 448
WIRE 256 480 256 368
WIRE 256 480 192 480
WIRE 320 480 256 480
WIRE 112 512 112 448
WIRE 144 512 144 496
WIRE 144 512 112 512
WIRE 368 512 368 496
WIRE 400 512 400 448
WIRE 400 512 368 512
WIRE 144 576 144 512
WIRE 256 576 144 576
WIRE 368 576 368 512
WIRE 368 576 256 576
FLAG 256 656 0
FLAG 256 0 0
SYMBOL res 128 96 R0
SYMATTR InstName R1
SYMATTR Value 5.32k
SYMBOL nmos4 192 224 M0
SYMATTR InstName M3
SYMATTR Value mos3
SYMBOL nmos4 320 224 R0
SYMATTR InstName M4
SYMATTR Value mos4
SYMBOL nmos4 192 400 M0
SYMATTR InstName M1
SYMATTR Value mos1
SYMBOL nmos4 320 400 R0
SYMATTR InstName M2
SYMATTR Value mos2
SYMBOL voltage 256 560 R0
WINDOW 123 0 0 Left 0
WINDOW 39 0 0 Left 0
SYMATTR InstName V1
SYMATTR Value -15
SYMBOL voltage 256 96 R180
WINDOW 0 24 96 Left 2
WINDOW 3 24 16 Left 2
WINDOW 123 0 0 Left 0
WINDOW 39 0 0 Left 0
SYMATTR InstName V2
SYMATTR Value 15
TEXT 464 384 Left 2 !.model mos1 NMOS(Vto=1,Kp=20m,W=100u,L=100u)\n.model mos2 NMOS(Vto=1,Kp=20m,W=100u,L=100u)\n.model mos3 NMOS(Vto=1,Kp=20m,W=100u,L=100u)\n.model mos4 NMOS(Vto=1,Kp=20m,W=100u,L=100u)
TEXT 64 680 Left 2 !.op
