Version 4.1
SHEET 1 3292 680
WIRE 512 128 288 128
WIRE 512 224 512 128
WIRE 96 256 32 256
WIRE 224 256 176 256
WIRE 32 304 32 256
WIRE 288 336 288 304
WIRE 32 432 32 384
WIRE 288 432 288 416
WIRE 288 432 32 432
WIRE 512 432 512 304
WIRE 512 432 288 432
FLAG 288 432 0
SYMBOL res 272 112 R0
SYMATTR InstName Rc
SYMATTR Value 3.3k
SYMBOL npn 224 208 R0
SYMATTR InstName Q1
SYMATTR Value 2N2222_2023043_150B
SYMBOL voltage 512 208 R0
WINDOW 123 0 0 Left 0
WINDOW 39 0 0 Left 0
SYMATTR InstName V1
SYMATTR Value 12V
SYMBOL res 272 320 R0
SYMATTR InstName RE
SYMATTR Value 1.2k
SYMBOL res 192 240 R90
WINDOW 0 0 56 VBottom 2
WINDOW 3 32 56 VTop 2
SYMATTR InstName RTH
SYMATTR Value 1279.4
SYMBOL voltage 32 288 R0
WINDOW 123 0 0 Left 0
WINDOW 39 0 0 Left 0
SYMATTR InstName Vth
SYMATTR Value 3.268
TEXT 72 448 Left 2 !.tran 1s
TEXT 752 136 Left 2 !.model 2N2222_2023043_150B NPN(IS=1E-14 VAF=100 BF=150 IKF=0.3 XTB=1.5 BR=3 CJC=8E-12 CJE=25E-12 TR=100E-9 TF=400E-12 ITF=1 VTF=2 XTF=3 RB=10 RC=.3 RE=.2 Vceo=30 Icrating=800m mfg=NXP)
